<?xml version='1.0' encoding='UTF-8'?>
<!-- generated on 2025-09-17 20:28:37 by Eclipse SUMO netedit Version 1.22.0
<neteditConfiguration xmlns:xsi="http://www.w3.org/2001/XMLSchema-instance" xsi:noNamespaceSchemaLocation="http://sumo.dlr.de/xsd/neteditConfiguration.xsd">

    <input>
        <sumocfg-file value="C:\Users\mushf\OneDrive\Desktop\Sumo Project\CustomRoadNetwork2.sumocfg"/>
        <additional-files value="C:\Users\mushf\OneDrive\Desktop\Sumo Project\chargingStations.add.xml"/>
        <route-files value="C:\Users\mushf\OneDrive\Desktop\Sumo Project\CustomRoadNetwork.rou.xml"/>
        <sumo-net-file value="C:\Users\mushf\OneDrive\Desktop\Sumo Project\CustomRoadNetwork.net.xml"/>
    </input>

    <output>
        <output-file value="C:\Users\mushf\OneDrive\Desktop\Sumo Project\CustomRoadNetwork.net.xml"/>
    </output>

    <processing>
        <geometry.min-radius.fix.railways value="false"/>
        <geometry.max-grade.fix value="false"/>
        <offset.disable-normalization value="true"/>
        <lefthand value="0"/>
    </processing>

    <junctions>
        <no-turnarounds value="true"/>
        <junctions.corner-detail value="5"/>
        <junctions.limit-turn-speed value="5.50"/>
        <rectangular-lane-cut value="0"/>
    </junctions>

    <pedestrian>
        <walkingareas value="0"/>
    </pedestrian>

    <netedit>
        <ignore.routeelements value="false"/>
    </netedit>

</neteditConfiguration>
-->
<net xmlns:xsi="http://www.w3.org/2001/XMLSchema-instance" version="1.20" junctionCornerDetail="5" limitTurnSpeed="5.50" xsi:noNamespaceSchemaLocation="http://sumo.dlr.de/xsd/net_file.xsd">

    <location netOffset="0.00,0.00" convBoundary="-218.70,-215.27,223.72,214.90" origBoundary="-10000000000.00,-10000000000.00,10000000000.00,10000000000.00" projParameter="!"/>

    <edge id=":Chachra_0" function="internal">
        <lane id=":Chachra_0_0" index="0" speed="6.29" length="13.21" shape="-153.36,-184.94 -156.89,-188.68 -159.55,-190.20 -161.36,-189.49 -162.30,-186.57"/>
    </edge>
    <edge id=":Chachra_1" function="internal">
        <lane id=":Chachra_1_0" index="0" speed="7.65" length="20.43" shape="-153.36,-184.94 -156.01,-190.12 -155.88,-194.96 -153.12,-198.41 -147.87,-199.45"/>
    </edge>
    <edge id=":Chachra_2" function="internal">
        <lane id=":Chachra_2_0" index="0" speed="5.51" length="9.74" shape="-148.69,-193.03 -151.70,-192.91 -153.15,-191.94 -153.02,-190.12 -151.32,-187.45"/>
    </edge>
    <edge id=":Chachra_3" function="internal">
        <lane id=":Chachra_3_0" index="0" speed="8.80" length="16.72" shape="-148.69,-193.03 -154.29,-193.00 -158.42,-191.91 -161.09,-189.77 -162.30,-186.57"/>
        <lane id=":Chachra_3_1" index="1" speed="9.97" length="21.79" shape="-148.28,-196.21 -155.30,-196.10 -160.51,-194.53 -163.90,-191.48 -165.48,-186.97"/>
    </edge>
    <edge id=":Chachra_5" function="internal">
        <lane id=":Chachra_5_0" index="0" speed="12.04" length="31.92" shape="-171.82,-187.79 -169.52,-194.84 -164.69,-199.67 -157.34,-202.26 -147.47,-202.63"/>
        <lane id=":Chachra_5_1" index="1" speed="11.04" length="26.93" shape="-168.65,-187.38 -166.70,-193.23 -162.58,-197.19 -156.31,-199.27 -147.87,-199.45"/>
    </edge>
    <edge id=":Chachra_7" function="internal">
        <lane id=":Chachra_7_0" index="0" speed="8.05" length="5.36" shape="-168.65,-187.38 -166.38,-192.24"/>
    </edge>
    <edge id=":Chachra_8" function="internal">
        <lane id=":Chachra_8_0" index="0" speed="8.05" length="17.43" shape="-166.38,-192.24 -166.27,-192.48 -161.79,-193.81 -156.40,-191.95 -151.32,-187.45"/>
    </edge>
    <edge id=":Dhormotola_0" function="internal">
        <lane id=":Dhormotola_0_0" index="0" speed="6.32" length="9.01" shape="-184.51,30.68 -186.98,30.52 -188.85,31.22 -190.12,32.79 -190.79,35.22"/>
    </edge>
    <edge id=":Dhormotola_1" function="internal">
        <lane id=":Dhormotola_1_0" index="0" speed="8.93" length="16.76" shape="-184.51,30.68 -189.62,29.06 -193.12,26.75 -195.01,23.77 -195.30,20.10"/>
    </edge>
    <edge id=":Dhormotola_2" function="internal">
        <lane id=":Dhormotola_2_0" index="0" speed="6.76" length="9.23" shape="-188.95,20.92 -188.90,23.35 -188.06,25.26 -186.42,26.64 -184.00,27.50"/>
    </edge>
    <edge id=":Dhormotola_3" function="internal">
        <lane id=":Dhormotola_3_0" index="0" speed="13.89" length="14.43" shape="-188.95,20.92 -190.79,35.22"/>
        <lane id=":Dhormotola_3_1" index="1" speed="13.89" length="14.43" shape="-192.12,20.51 -193.96,34.82"/>
    </edge>
    <edge id=":Dhormotola_5" function="internal">
        <lane id=":Dhormotola_5_0" index="0" speed="13.89" length="14.43" shape="-200.31,34.00 -198.47,19.69"/>
        <lane id=":Dhormotola_5_1" index="1" speed="13.89" length="14.43" shape="-197.13,34.41 -195.30,20.10"/>
    </edge>
    <edge id=":Dhormotola_7" function="internal">
        <lane id=":Dhormotola_7_0" index="0" speed="8.50" length="3.92" shape="-197.13,34.41 -195.93,30.67"/>
    </edge>
    <edge id=":Dhormotola_8" function="internal">
        <lane id=":Dhormotola_8_0" index="0" speed="8.50" length="13.24" shape="-195.93,30.67 -195.86,30.44 -193.24,27.97 -189.29,26.99 -184.00,27.50"/>
    </edge>
    <edge id=":Doratana_0" function="internal">
        <lane id=":Doratana_0_0" index="0" speed="8.05" length="14.98" shape="-41.89,58.00 -43.99,56.20 -46.90,55.95 -50.61,57.26 -55.14,60.12"/>
    </edge>
    <edge id=":Doratana_1" function="internal">
        <lane id=":Doratana_1_0" index="0" speed="11.79" length="18.58" shape="-41.89,58.00 -44.43,55.41 -48.10,53.62 -52.92,52.63 -58.87,52.44"/>
    </edge>
    <edge id=":Doratana_2" function="internal">
        <lane id=":Doratana_2_0" index="0" speed="13.89" length="16.55" shape="-41.89,58.00 -43.82,54.52 -45.53,50.60 -47.04,46.58 -48.40,42.81"/>
    </edge>
    <edge id=":Doratana_3" function="internal">
        <lane id=":Doratana_3_0" index="0" speed="7.65" length="5.18" shape="-41.89,58.00 -43.72,54.06 -43.70,53.23"/>
    </edge>
    <edge id=":Doratana_20" function="internal">
        <lane id=":Doratana_20_0" index="0" speed="7.65" length="10.25" shape="-43.70,53.23 -43.61,50.78 -41.56,48.14 -37.56,46.16"/>
    </edge>
    <edge id=":Doratana_4" function="internal">
        <lane id=":Doratana_4_0" index="0" speed="6.26" length="10.04" shape="-36.58,49.19 -39.01,50.45 -40.17,52.18 -40.07,54.39 -38.71,57.07"/>
    </edge>
    <edge id=":Doratana_5" function="internal">
        <lane id=":Doratana_5_0" index="0" speed="13.89" length="21.58" shape="-36.58,49.19 -40.91,51.15 -46.13,54.14 -51.21,57.38 -55.14,60.12"/>
    </edge>
    <edge id=":Doratana_6" function="internal">
        <lane id=":Doratana_6_0" index="0" speed="13.89" length="22.57" shape="-36.58,49.19 -41.36,50.34 -47.63,51.35 -53.95,52.09 -58.87,52.44"/>
    </edge>
    <edge id=":Doratana_7" function="internal">
        <lane id=":Doratana_7_0" index="0" speed="8.35" length="4.65" shape="-36.58,49.19 -40.48,49.85 -41.15,49.68"/>
    </edge>
    <edge id=":Doratana_21" function="internal">
        <lane id=":Doratana_21_0" index="0" speed="8.35" length="10.56" shape="-41.15,49.68 -43.76,49.01 -46.39,46.66 -48.40,42.81"/>
    </edge>
    <edge id=":Doratana_8" function="internal">
        <lane id=":Doratana_8_0" index="0" speed="6.96" length="10.19" shape="-45.41,41.71 -44.03,44.34 -42.27,45.96 -40.11,46.57 -37.56,46.16"/>
    </edge>
    <edge id=":Doratana_9" function="internal">
        <lane id=":Doratana_9_0" index="0" speed="13.89" length="16.79" shape="-45.41,41.71 -44.02,45.50 -42.46,49.60 -40.70,53.59 -38.71,57.07"/>
    </edge>
    <edge id=":Doratana_10" function="internal">
        <lane id=":Doratana_10_0" index="0" speed="11.10" length="3.46" shape="-45.41,41.71 -44.92,45.14"/>
    </edge>
    <edge id=":Doratana_11" function="internal">
        <lane id=":Doratana_11_0" index="0" speed="8.64" length="3.32" shape="-45.41,41.71 -44.97,45.00"/>
    </edge>
    <edge id=":Doratana_22" function="internal">
        <lane id=":Doratana_22_0" index="0" speed="11.10" length="18.86" shape="-44.92,45.14 -44.78,46.15 -46.19,50.70 -49.64,55.36 -55.14,60.12"/>
    </edge>
    <edge id=":Doratana_23" function="internal">
        <lane id=":Doratana_23_0" index="0" speed="8.64" length="17.58" shape="-44.97,45.00 -44.82,46.20 -46.86,49.48 -51.55,51.56 -58.87,52.44"/>
    </edge>
    <edge id=":Doratana_12" function="internal">
        <lane id=":Doratana_12_0" index="0" speed="7.34" length="14.67" shape="-59.13,49.25 -53.60,48.69 -49.98,47.43 -48.24,45.47 -48.40,42.81"/>
    </edge>
    <edge id=":Doratana_13" function="internal">
        <lane id=":Doratana_13_0" index="0" speed="13.89" length="21.82" shape="-59.13,49.25 -54.31,48.92 -48.25,48.24 -42.23,47.29 -37.56,46.16"/>
    </edge>
    <edge id=":Doratana_14" function="internal">
        <lane id=":Doratana_14_0" index="0" speed="13.17" length="5.77" shape="-59.13,49.25 -53.36,49.52"/>
    </edge>
    <edge id=":Doratana_15" function="internal">
        <lane id=":Doratana_15_0" index="0" speed="7.67" length="5.36" shape="-59.13,49.25 -53.78,49.57"/>
    </edge>
    <edge id=":Doratana_24" function="internal">
        <lane id=":Doratana_24_0" index="0" speed="13.17" length="17.02" shape="-53.36,49.52 -52.32,49.56 -46.65,50.97 -42.11,53.47 -38.71,57.07"/>
    </edge>
    <edge id=":Doratana_25" function="internal">
        <lane id=":Doratana_25_0" index="0" speed="7.67" length="17.14" shape="-53.78,49.57 -51.55,49.70 -48.36,51.66 -49.55,55.13 -55.14,60.12"/>
    </edge>
    <edge id=":Doratana_16" function="internal">
        <lane id=":Doratana_16_0" index="0" speed="5.47" length="10.56" shape="-57.01,57.56 -54.40,55.21 -53.83,53.58 -55.32,52.65 -58.87,52.44"/>
    </edge>
    <edge id=":Doratana_17" function="internal">
        <lane id=":Doratana_17_0" index="0" speed="10.11" length="18.19" shape="-57.01,57.56 -52.34,53.57 -49.35,49.78 -48.03,46.20 -48.40,42.81"/>
    </edge>
    <edge id=":Doratana_18" function="internal">
        <lane id=":Doratana_18_0" index="0" speed="13.89" length="22.59" shape="-57.01,57.56 -52.95,54.74 -47.56,51.34 -42.04,48.19 -37.56,46.16"/>
    </edge>
    <edge id=":Doratana_19" function="internal">
        <lane id=":Doratana_19_0" index="0" speed="9.46" length="20.83" shape="-57.01,57.56 -51.23,54.09 -46.25,52.85 -42.08,53.84 -38.71,57.07"/>
    </edge>
    <edge id=":Monihar_0" function="internal">
        <lane id=":Monihar_0_0" index="0" speed="13.89" length="11.14" shape="83.92,-5.45 82.53,-2.37 81.65,-0.13 81.12,2.10 80.75,5.14"/>
    </edge>
    <edge id=":Monihar_1" function="internal">
        <lane id=":Monihar_1_0" index="0" speed="13.89" length="11.62" shape="81.01,-6.77 79.17,-4.00 77.06,-2.69 74.62,-1.82 71.76,-0.33"/>
    </edge>
    <edge id=":Monihar_2" function="internal">
        <lane id=":Monihar_2_0" index="0" speed="13.16" length="8.67" shape="69.78,-2.87 71.86,-4.36 73.14,-5.59 74.09,-7.10 75.18,-9.42"/>
    </edge>
    <edge id=":Monihar_3" function="internal">
        <lane id=":Monihar_3_0" index="0" speed="7.77" length="5.81" shape="69.78,-2.87 74.98,-5.48"/>
    </edge>
    <edge id=":Monihar_6" function="internal">
        <lane id=":Monihar_6_0" index="0" speed="7.77" length="14.54" shape="74.98,-5.48 75.13,-5.56 78.74,-5.12 80.62,-1.55 80.75,5.14"/>
    </edge>
    <edge id=":Monihar_4" function="internal">
        <lane id=":Monihar_4_0" index="0" speed="6.07" length="11.87" shape="77.61,5.05 77.62,0.91 76.65,-1.36 74.70,-1.78 71.76,-0.33"/>
    </edge>
    <edge id=":Monihar_5" function="internal">
        <lane id=":Monihar_5_0" index="0" speed="13.89" length="13.35" shape="77.61,5.05 77.51,1.74 77.02,-1.14 76.94,-4.22 78.09,-8.10"/>
    </edge>
    <edge id=":Muroli_0" function="internal">
        <lane id=":Muroli_0_0" index="0" speed="8.78" length="26.24" shape="210.91,-218.84 217.80,-216.81 221.50,-212.32 221.70,-206.39 218.10,-200.04"/>
        <lane id=":Muroli_0_1" index="1" speed="7.98" length="21.44" shape="210.66,-215.65 217.13,-214.47 220.13,-211.85 219.68,-207.77 215.77,-202.24"/>
    </edge>
    <edge id=":Muroli_2" function="internal">
        <lane id=":Muroli_2_0" index="0" speed="4.04" length="4.30" shape="211.20,-206.57 211.98,-207.68 212.07,-208.50 211.46,-209.03 210.17,-209.27"/>
        <lane id=":Muroli_2_1" index="1" speed="6.34" length="12.90" shape="213.53,-204.37 215.85,-207.70 216.11,-210.16 214.30,-211.75 210.41,-212.46"/>
    </edge>
    <edge id=":New_Market_0" function="internal">
        <lane id=":New_Market_0_0" index="0" speed="13.89" length="16.04" shape="10.60,170.07 6.90,171.21 2.84,171.62 -1.30,171.49 -5.22,171.02"/>
    </edge>
    <edge id=":New_Market_1" function="internal">
        <lane id=":New_Market_1_0" index="0" speed="7.41" length="5.47" shape="10.60,170.07 6.67,171.15 5.32,170.77"/>
    </edge>
    <edge id=":New_Market_6" function="internal">
        <lane id=":New_Market_6_0" index="0" speed="7.41" length="9.79" shape="5.32,170.77 3.74,170.31 1.80,167.56 0.87,162.88"/>
    </edge>
    <edge id=":New_Market_2" function="internal">
        <lane id=":New_Market_2_0" index="0" speed="5.84" length="9.08" shape="4.10,162.72 4.64,165.46 5.80,167.06 7.57,167.50 9.95,166.79"/>
    </edge>
    <edge id=":New_Market_3" function="internal">
        <lane id=":New_Market_3_0" index="0" speed="7.65" length="15.11" shape="4.10,162.72 3.78,166.94 2.12,169.73 -0.88,171.09 -5.22,171.02"/>
    </edge>
    <edge id=":New_Market_4" function="internal">
        <lane id=":New_Market_4_0" index="0" speed="6.09" length="9.09" shape="-4.69,167.95 -2.09,167.96 -0.29,167.11 0.69,165.42 0.87,162.88"/>
    </edge>
    <edge id=":New_Market_5" function="internal">
        <lane id=":New_Market_5_0" index="0" speed="13.89" length="14.90" shape="-4.69,167.95 -0.95,168.37 2.79,168.44 6.46,167.98 9.95,166.79"/>
    </edge>
    <edge id=":Palbari_0" function="internal">
        <lane id=":Palbari_0_0" index="0" speed="9.87" length="30.90" shape="-202.94,210.07 -211.22,211.56 -217.19,208.84 -220.50,202.65 -220.82,193.75"/>
    </edge>
    <edge id=":Palbari_1" function="internal">
        <lane id=":Palbari_1_0" index="0" speed="6.82" length="18.29" shape="-202.94,210.07 -207.08,210.06 -209.07,206.80 -208.87,201.92 -206.44,197.03"/>
    </edge>
    <edge id=":Palbari_2" function="internal">
        <lane id=":Palbari_2_0" index="0" speed="6.23" length="14.92" shape="-203.95,199.00 -207.70,204.06 -208.99,207.10 -207.82,208.12 -204.19,207.12"/>
    </edge>
    <edge id=":Palbari_3" function="internal">
        <lane id=":Palbari_3_0" index="0" speed="7.14" length="1.46" shape="-203.95,199.00 -205.16,199.82"/>
    </edge>
    <edge id=":Palbari_6" function="internal">
        <lane id=":Palbari_6_0" index="0" speed="7.14" length="18.22" shape="-205.16,199.82 -208.39,202.00 -213.10,201.92 -216.66,199.17 -217.65,194.16"/>
    </edge>
    <edge id=":Palbari_4" function="internal">
        <lane id=":Palbari_4_0" index="0" speed="5.50" length="10.92" shape="-211.30,194.97 -211.46,198.67 -210.70,200.24 -209.02,199.70 -206.44,197.03"/>
    </edge>
    <edge id=":Palbari_5" function="internal">
        <lane id=":Palbari_5_0" index="0" speed="8.34" length="21.69" shape="-214.48,194.56 -214.69,202.01 -213.04,206.58 -209.54,208.29 -204.19,207.12"/>
    </edge>

    <edge id="-E0" from="Doratana" to="Palbari" priority="-1" length="24101.399999999998" shape="-44.04,49.98 -45.95,51.38 -47.86,52.77 -49.75,54.16 -51.63,55.54 -53.49,56.92 -55.35,58.29 -57.19,59.65 -59.01,61.01 -60.83,62.37 -62.64,63.72 -64.43,65.07 -66.21,66.41 -67.98,67.74 -69.73,69.08 -71.48,70.41 -73.22,71.73 -74.94,73.05 -76.65,74.37 -78.36,75.68 -80.05,76.99 -81.73,78.30 -83.40,79.61 -85.06,80.91 -86.71,82.21 -88.36,83.50 -89.99,84.80 -91.61,86.09 -93.22,87.38 -94.83,88.67 -96.42,89.95 -98.01,91.24 -99.58,92.52 -101.15,93.80 -102.71,95.08 -104.26,96.36 -105.80,97.63 -107.33,98.91 -108.86,100.19 -110.38,101.46 -111.89,102.74 -113.39,104.01 -114.89,105.29 -116.37,106.56 -117.86,107.84 -119.33,109.11 -120.80,110.39 -122.26,111.67 -123.71,112.94 -125.16,114.22 -126.60,115.50 -128.03,116.78 -129.46,118.07 -130.88,119.35 -132.30,120.63 -133.71,121.92 -135.11,123.21 -136.51,124.50 -137.91,125.80 -139.30,127.09 -140.68,128.39 -142.06,129.69 -143.44,131.00 -144.81,132.30 -146.18,133.62 -147.54,134.93 -148.90,136.25 -150.25,137.57 -151.60,138.89 -152.95,140.22 -154.29,141.55 -155.63,142.89 -156.97,144.23 -158.30,145.58 -159.63,146.93 -160.96,148.28 -162.28,149.64 -163.60,151.01 -164.92,152.38 -166.24,153.76 -167.56,155.14 -168.87,156.52 -170.18,157.92 -171.49,159.32 -172.80,160.72 -174.11,162.13 -175.41,163.55 -176.72,164.97 -178.02,166.41 -179.33,167.84 -180.63,169.29 -181.93,170.74 -183.23,172.20 -184.53,173.67 -185.83,175.14 -187.13,176.62 -188.43,178.11 -189.73,179.61 -191.03,181.12 -192.34,182.63 -193.64,184.16 -194.94,185.69 -196.25,187.23 -197.55,188.78 -198.86,190.34 -200.17,191.90 -201.48,193.48 -202.79,195.07 -204.10,196.66 -205.42,198.27 -206.73,199.89 -208.05,201.51 -209.37,203.15 -210.70,204.80 -212.02,206.45 -213.35,208.12 -214.69,209.80 -216.02,211.49 -217.36,213.19 -218.70,214.90">
        <lane id="-E0_0" index="0" speed="13.89" length="2410.14" shape="-55.14,60.12 -56.24,60.93 -58.05,62.29 -59.87,63.65 -61.68,65.00 -63.47,66.35 -65.25,67.69 -67.01,69.01 -68.76,70.35 -70.51,71.68 -72.25,73.00 -73.96,74.32 -75.67,75.64 -77.38,76.95 -79.07,78.25 -80.74,79.56 -82.41,80.87 -84.07,82.17 -85.72,83.47 -87.37,84.76 -88.99,86.05 -90.61,87.34 -92.22,88.63 -93.83,89.92 -95.41,91.19 -97.00,92.48 -98.57,93.76 -100.14,95.04 -101.69,96.32 -103.24,97.59 -104.78,98.86 -106.30,100.14 -107.83,101.42 -109.35,102.68 -110.86,103.96 -112.35,105.23 -113.85,106.51 -115.33,107.77 -116.82,109.05 -118.28,110.32 -119.75,111.59 -121.21,112.87 -122.65,114.14 -124.10,115.42 -125.53,116.69 -126.96,117.97 -128.39,119.26 -129.81,120.54 -131.22,121.81 -132.63,123.10 -134.03,124.39 -135.42,125.67 -136.82,126.97 -138.21,128.26 -139.58,129.55 -140.96,130.85 -142.34,132.16 -143.70,133.46 -145.07,134.77 -146.43,136.08 -147.78,137.40 -149.13,138.71 -150.48,140.03 -151.82,141.36 -153.16,142.68 -154.50,144.02 -155.83,145.36 -157.16,146.70 -158.49,148.05 -159.82,149.40 -161.13,150.75 -162.45,152.12 -163.77,153.49 -165.08,154.87 -166.40,156.24 -167.71,157.62 -169.01,159.01 -170.32,160.41 -171.63,161.81 -172.93,163.21 -174.23,164.63 -175.54,166.05 -176.84,167.49 -178.14,168.91 -179.44,170.36 -180.74,171.81 -182.03,173.26 -183.33,174.73 -184.63,176.20 -185.93,177.67 -187.22,179.16 -188.52,180.66 -189.82,182.17 -191.13,183.67 -192.42,185.20 -193.72,186.73 -195.03,188.26 -196.32,189.81 -197.63,191.37 -198.94,192.93 -200.25,194.50 -201.56,196.09 -202.86,197.68 -203.95,199.00"/>
    </edge>
    <edge id="-E1" from="New_Market" to="Doratana" priority="-1" length="13203.099999999999" shape="2.93,170.72 2.75,167.19 2.54,163.74 2.28,160.37 1.99,157.07 1.66,153.85 1.30,150.70 0.91,147.63 0.48,144.62 0.02,141.69 -0.47,138.82 -0.99,136.02 -1.53,133.29 -2.10,130.63 -2.70,128.03 -3.32,125.49 -3.97,123.02 -4.64,120.61 -5.33,118.26 -6.04,115.96 -6.77,113.73 -7.51,111.55 -8.28,109.43 -9.06,107.36 -9.85,105.35 -10.66,103.39 -11.48,101.48 -12.31,99.62 -13.16,97.81 -14.01,96.04 -14.87,94.33 -15.74,92.66 -16.61,91.03 -17.49,89.45 -18.37,87.91 -19.26,86.42 -20.15,84.96 -21.03,83.54 -21.92,82.16 -22.81,80.82 -23.69,79.51 -24.57,78.24 -25.44,77.00 -26.31,75.79 -27.17,74.62 -28.03,73.47 -28.87,72.36 -29.71,71.27 -30.53,70.21 -31.34,69.18 -32.14,68.17 -32.92,67.18 -33.68,66.22 -34.43,65.28 -35.17,64.36 -35.88,63.45 -36.57,62.57 -37.24,61.70 -37.89,60.85 -38.52,60.01 -39.12,59.19 -39.70,58.38 -40.25,57.58 -40.77,56.79 -41.26,56.01 -41.72,55.24 -42.16,54.48 -42.56,53.72 -42.92,52.97 -43.26,52.22 -43.55,51.47 -43.81,50.73 -44.04,49.98">
        <lane id="-E1_0" index="0" speed="13.89" length="1320.31" shape="0.87,162.88 0.69,160.50 0.40,157.22 0.07,154.02 -0.29,150.89 -0.68,147.84 -1.10,144.86 -1.56,141.95 -2.05,139.10 -2.56,136.32 -3.10,133.61 -3.66,130.98 -4.26,128.40 -4.87,125.88 -5.51,123.44 -6.18,121.05 -6.86,118.72 -7.56,116.44 -8.29,114.24 -9.02,112.08 -9.78,109.99 -10.55,107.93 -11.33,105.95 -12.13,104.01 -12.95,102.12 -13.76,100.29 -14.61,98.50 -15.45,96.75 -16.29,95.06 -17.16,93.41 -18.01,91.80 -18.88,90.24 -19.75,88.72 -20.63,87.25 -21.51,85.80 -22.38,84.39 -23.26,83.04 -24.14,81.71 -25.01,80.41 -25.88,79.16 -26.74,77.93 -27.60,76.73 -28.46,75.57 -29.31,74.43 -30.14,73.33 -30.98,72.25 -31.79,71.19 -32.60,70.17 -33.40,69.16 -34.18,68.17 -34.93,67.22 -35.68,66.28 -36.42,65.35 -37.14,64.44 -37.83,63.55 -38.51,62.67 -39.17,61.82 -39.81,60.96 -40.42,60.13 -41.01,59.30 -41.58,58.47 -41.89,58.00"/>
    </edge>
    <edge id="-E2" from="New_Market" to="Palbari" priority="-1" length="23000.7" shape="2.93,170.72 1.34,170.45 -0.25,170.20 -1.82,169.94 -3.38,169.69 -4.92,169.45 -6.46,169.21 -7.99,168.98 -9.50,168.76 -11.00,168.54 -12.50,168.32 -13.99,168.11 -15.46,167.91 -16.93,167.72 -18.40,167.53 -19.85,167.35 -21.30,167.18 -22.75,167.01 -24.19,166.85 -25.62,166.70 -27.05,166.56 -28.48,166.43 -29.90,166.30 -31.32,166.18 -32.74,166.07 -34.16,165.97 -35.57,165.88 -36.99,165.80 -38.40,165.73 -39.81,165.66 -41.23,165.61 -42.65,165.56 -44.07,165.53 -45.49,165.51 -46.91,165.49 -48.34,165.49 -49.77,165.50 -51.21,165.52 -52.65,165.55 -54.09,165.59 -55.55,165.64 -57.00,165.70 -58.47,165.78 -59.94,165.87 -61.42,165.97 -62.91,166.08 -64.41,166.20 -65.92,166.34 -67.44,166.49 -68.97,166.65 -70.51,166.83 -72.06,167.02 -73.62,167.22 -75.20,167.44 -76.79,167.67 -78.39,167.91 -80.01,168.17 -81.64,168.44 -83.29,168.73 -84.95,169.03 -86.63,169.35 -88.32,169.68 -90.03,170.03 -91.76,170.39 -93.51,170.77 -95.28,171.17 -97.06,171.58 -98.87,172.00 -100.69,172.45 -102.54,172.91 -104.41,173.38 -106.30,173.88 -108.21,174.39 -110.15,174.91 -112.10,175.46 -114.08,176.02 -116.09,176.60 -118.12,177.20 -120.18,177.81 -122.26,178.45 -124.37,179.10 -126.50,179.77 -128.66,180.46 -130.86,181.17 -133.07,181.90 -135.32,182.64 -137.60,183.41 -139.91,184.20 -142.24,185.00 -144.61,185.83 -147.01,186.68 -149.44,187.54 -151.91,188.43 -154.40,189.34 -156.93,190.27 -159.50,191.22 -162.10,192.19 -164.73,193.18 -167.40,194.19 -170.10,195.23 -172.85,196.29 -175.63,197.37 -178.44,198.47 -181.30,199.59 -184.19,200.74 -187.12,201.91 -190.09,203.10 -193.11,204.32 -196.16,205.56 -199.25,206.82 -202.39,208.11 -205.56,209.42 -208.78,210.76 -212.05,212.11 -215.35,213.50 -218.70,214.90">
        <lane id="-E2_0" index="0" speed="13.89" length="2300.07" shape="-5.22,171.02 -6.70,170.79 -8.22,170.56 -9.73,170.34 -11.23,170.12 -12.73,169.90 -14.21,169.69 -15.67,169.50 -17.14,169.31 -18.60,169.12 -20.04,168.94 -21.49,168.77 -22.93,168.60 -24.36,168.44 -25.78,168.29 -27.20,168.15 -28.63,168.02 -30.04,167.89 -31.45,167.77 -32.86,167.67 -34.27,167.57 -35.67,167.48 -37.07,167.40 -38.48,167.33 -39.88,167.26 -41.29,167.21 -42.70,167.16 -44.10,167.13 -45.51,167.11 -46.92,167.09 -48.33,167.09 -49.75,167.10 -51.18,167.12 -52.61,167.15 -54.04,167.19 -55.49,167.24 -56.92,167.30 -58.38,167.38 -59.84,167.47 -61.31,167.57 -62.79,167.68 -64.27,167.79 -65.77,167.93 -67.28,168.08 -68.79,168.24 -70.32,168.42 -71.86,168.61 -73.41,168.81 -74.98,169.02 -76.56,169.25 -78.14,169.49 -79.75,169.75 -81.37,170.02 -83.01,170.31 -84.66,170.60 -86.33,170.92 -88.01,171.25 -89.71,171.60 -91.43,171.96 -93.16,172.33 -94.92,172.73 -96.70,173.14 -98.50,173.56 -100.30,174.00 -102.15,174.46 -104.01,174.93 -105.89,175.43 -107.80,175.94 -109.73,176.45 -111.67,177.00 -113.64,177.56 -115.64,178.14 -117.67,178.73 -119.72,179.34 -121.79,179.98 -123.89,180.63 -126.02,181.30 -128.17,181.98 -130.36,182.69 -132.57,183.42 -134.81,184.16 -137.09,184.92 -139.39,185.71 -141.72,186.51 -144.08,187.34 -146.48,188.19 -148.90,189.05 -151.36,189.93 -153.85,190.84 -156.38,191.77 -158.94,192.72 -161.54,193.69 -164.17,194.68 -166.83,195.68 -169.52,196.72 -172.27,197.78 -175.05,198.86 -177.86,199.96 -180.71,201.08 -183.60,202.23 -186.53,203.40 -189.49,204.58 -192.51,205.80 -195.56,207.04 -198.64,208.30 -201.78,209.59 -202.94,210.07"/>
    </edge>
    <edge id="-E3" from="Chachra" to="Dhormotola" priority="-1" length="22806.100000000002">
        <lane id="-E3_0" index="0" speed="13.89" length="2280.61" shape="-162.30,-186.57 -188.95,20.92"/>
        <lane id="-E3_1" index="1" speed="13.89" length="2280.61" shape="-165.48,-186.97 -192.12,20.51"/>
    </edge>
    <edge id="-E30" from="Dhormotola" to="Palbari" priority="-1" length="18902.8">
        <lane id="-E30_0" index="0" speed="13.89" length="1890.28" shape="-190.79,35.22 -211.30,194.97"/>
        <lane id="-E30_1" index="1" speed="13.89" length="1890.28" shape="-193.96,34.82 -214.48,194.56"/>
    </edge>
    <edge id="-E4" from="Chachra" to="Doratana" priority="-1" length="27904.0" shape="-165.47,-199.59 -164.68,-198.95 -163.89,-198.29 -163.09,-197.60 -162.30,-196.88 -161.49,-196.14 -160.69,-195.38 -159.89,-194.59 -159.08,-193.77 -158.27,-192.94 -157.46,-192.08 -156.65,-191.19 -155.83,-190.29 -155.02,-189.36 -154.20,-188.40 -153.38,-187.43 -152.55,-186.43 -151.73,-185.41 -150.90,-184.36 -150.07,-183.30 -149.24,-182.21 -148.41,-181.10 -147.58,-179.97 -146.74,-178.82 -145.90,-177.65 -145.07,-176.46 -144.23,-175.24 -143.38,-174.01 -142.54,-172.76 -141.69,-171.48 -140.85,-170.19 -140.00,-168.87 -139.15,-167.54 -138.30,-166.19 -137.45,-164.82 -136.59,-163.43 -135.74,-162.02 -134.88,-160.60 -134.02,-159.15 -133.16,-157.69 -132.30,-156.21 -131.44,-154.71 -130.58,-153.19 -129.72,-151.66 -128.85,-150.11 -127.98,-148.54 -127.12,-146.96 -126.25,-145.36 -125.38,-143.75 -124.51,-142.11 -123.64,-140.47 -122.77,-138.80 -121.89,-137.13 -121.02,-135.43 -120.15,-133.72 -119.27,-132.00 -118.39,-130.26 -117.52,-128.51 -116.64,-126.74 -115.76,-124.96 -114.88,-123.17 -114.00,-121.36 -113.12,-119.53 -112.24,-117.70 -111.36,-115.85 -110.48,-113.99 -109.59,-112.12 -108.71,-110.23 -107.83,-108.33 -106.94,-106.42 -106.06,-104.50 -105.18,-102.57 -104.29,-100.62 -103.41,-98.66 -102.52,-96.70 -101.63,-94.72 -100.75,-92.73 -99.86,-90.73 -98.98,-88.72 -98.09,-86.70 -97.20,-84.67 -96.32,-82.63 -95.43,-80.58 -94.54,-78.52 -93.66,-76.45 -92.77,-74.38 -91.88,-72.29 -91.00,-70.20 -90.11,-68.10 -89.22,-65.99 -88.34,-63.87 -87.45,-61.74 -86.57,-59.61 -85.68,-57.47 -84.79,-55.32 -83.91,-53.17 -83.03,-51.01 -82.14,-48.84 -81.26,-46.66 -80.37,-44.48 -79.49,-42.30 -78.61,-40.11 -77.73,-37.91 -76.85,-35.71 -75.97,-33.50 -75.09,-31.29 -74.21,-29.07 -73.33,-26.85 -72.45,-24.62 -71.57,-22.39 -70.69,-20.16 -69.82,-17.92 -68.94,-15.68 -68.07,-13.43 -67.20,-11.18 -66.32,-8.93 -65.45,-6.68 -64.58,-4.42 -63.71,-2.16 -62.84,0.10 -61.97,2.36 -61.11,4.62 -60.24,6.89 -59.38,9.16 -58.51,11.43 -57.65,13.70 -56.79,15.97 -55.93,18.24 -55.07,20.51 -54.22,22.78 -53.36,25.05 -52.51,27.32 -51.65,29.59 -50.80,31.86 -49.95,34.13 -49.10,36.40 -48.25,38.67 -47.41,40.94 -46.56,43.20 -45.72,45.46 -44.88,47.72 -44.04,49.98">
        <lane id="-E4_0" index="0" speed="13.89" length="2790.40" shape="-151.32,-187.45 -150.48,-186.41 -149.64,-185.35 -148.80,-184.28 -147.96,-183.17 -147.12,-182.05 -146.29,-180.92 -145.44,-179.76 -144.59,-178.57 -143.75,-177.37 -142.91,-176.15 -142.06,-174.91 -141.21,-173.65 -140.35,-172.36 -139.51,-171.06 -138.65,-169.73 -137.80,-168.40 -136.94,-167.04 -136.09,-165.66 -135.22,-164.26 -134.37,-162.85 -133.51,-161.42 -132.64,-159.96 -131.78,-158.50 -130.91,-157.01 -130.05,-155.50 -129.19,-153.98 -128.32,-152.44 -127.45,-150.89 -126.58,-149.31 -125.71,-147.72 -124.84,-146.12 -123.97,-144.51 -123.10,-142.86 -122.22,-141.21 -121.35,-139.54 -120.47,-137.87 -119.59,-136.16 -118.72,-134.45 -117.84,-132.73 -116.96,-130.98 -116.09,-129.22 -115.21,-127.45 -114.32,-125.67 -113.44,-123.87 -112.56,-122.06 -111.68,-120.22 -110.80,-118.39 -109.91,-116.54 -109.03,-114.68 -108.14,-112.80 -107.26,-110.90 -106.38,-109.00 -105.49,-107.09 -104.60,-105.17 -103.72,-103.23 -102.83,-101.28 -101.95,-99.32 -101.06,-97.36 -100.17,-95.37 -99.29,-93.38 -98.40,-91.38 -97.52,-89.36 -96.63,-87.34 -95.73,-85.31 -94.85,-83.27 -93.96,-81.22 -93.07,-79.15 -92.19,-77.08 -91.30,-75.01 -90.41,-72.91 -89.53,-70.82 -88.64,-68.72 -87.74,-66.61 -86.86,-64.49 -85.97,-62.35 -85.09,-60.22 -84.20,-58.08 -83.31,-55.93 -82.43,-53.77 -81.55,-51.62 -80.66,-49.44 -79.78,-47.26 -78.89,-45.08 -78.01,-42.90 -77.12,-40.71 -76.24,-38.50 -75.36,-36.30 -74.48,-34.09 -73.60,-31.88 -72.72,-29.66 -71.84,-27.44 -70.96,-25.21 -70.08,-22.98 -69.20,-20.74 -68.33,-18.50 -67.45,-16.26 -66.58,-14.01 -65.71,-11.76 -64.83,-9.51 -63.96,-7.26 -63.09,-4.99 -62.22,-2.73 -61.35,-0.47 -60.48,1.79 -59.62,4.05 -58.74,6.32 -57.88,8.59 -57.01,10.86 -56.15,13.13 -55.29,15.40 -54.43,17.67 -53.57,19.95 -52.72,22.22 -51.86,24.49 -51.01,26.76 -50.15,29.03 -49.30,31.30 -48.45,33.57 -47.60,35.84 -46.75,38.11 -45.91,40.38 -45.41,41.71"/>
    </edge>