<?xml version='1.0' encoding='UTF-8'?>
<routes>


<vType id="Default_EV" vClass="evehicle" accel="1.0" decel="2.0" sigma="0.5" length="4.0" width="1.8" maxSpeed="13.9" guiShape="passenger" emissionClass="Energy/unknown" lcStrategic="1.0" lcCooperative="1.0" lcSpeedGain="1.0" lcKeepRight="0.0" lcSublane="1.0">
  <param key="has.battery.device" value="true" />
  <param key="device.battery.capacity" value="35000" /> 
  <param key="device.battery.initialCharge" value="35000" />
  <param key="device.battery.vehicleMass" value="1830" />
  <param key="device.battery.maximumPower" value="150000" />
  <param key="device.battery.propulsionEfficiency" value="0.95" />
  <param key="device.battery.recuperationEfficiency" value="0.90" />
</vType>
  
<vType id="Easybike_ER-02B" vClass="evehicle" accel="1.0" decel="2.0" sigma="0.5" length="2.87" width="1.05" maxSpeed="13.9" guiShape="passenger" emissionClass="Energy/unknown" lcStrategic="1.0" lcCooperative="1.0" lcSpeedGain="1.0" lcKeepRight="0.0" lcSublane="1.0">
  <param key="has.battery.device" value="true" />
  <param key="device.battery.capacity" value="3000" />
  <param key="device.battery.initialCharge" value="3000" />
  <param key="device.battery.vehicleMass" value="700" />
  <param key="device.battery.maximumPower" value="2000" />
  <param key="device.battery.propulsionEfficiency" value="0.85" />
  <param key="device.battery.recuperationEfficiency" value="0.80" />
  <param key="device.battery.constantPowerIntake" value="100" />
  <param key="device.battery.maximumChargeRate" value="2200" />
</vType>

<vType id="Small_Easybike_V12" vClass="evehicle" accel="1.0" decel="2.0" sigma="0.5" length="2.37" width="0.90" maxSpeed="7.78" guiShape="passenger" emissionClass="Energy/unknown" lcStrategic="1.0" lcCooperative="1.0" lcSpeedGain="1.0" lcKeepRight="0.0" lcSublane="1.0">
  <param key="has.battery.device" value="true" />
  <param key="device.battery.capacity" value="2000" />
  <param key="device.battery.initialCharge" value="2000" />
  <param key="device.battery.vehicleMass" value="500" />
  <param key="device.battery.maximumPower" value="1500" />
  <param key="device.battery.propulsionEfficiency" value="0.85" />
  <param key="device.battery.recuperationEfficiency" value="0.80" />
  <param key="device.battery.constantPowerIntake" value="80" />
  <param key="device.battery.maximumChargeRate" value="1500" />
</vType>

<vType id="Electric_Rickshaw_V8" vClass="evehicle" accel="1.0" decel="2.0" sigma="0.5" length="2.37" width="0.90" maxSpeed="7.78" guiShape="passenger" emissionClass="Energy/unknown" lcStrategic="1.0" lcCooperative="1.0" lcSpeedGain="1.0" lcKeepRight="0.0" lcSublane="1.0">
  <param key="has.battery.device" value="true" />
  <param key="device.battery.capacity" value="2500" />
  <param key="device.battery.initialCharge" value="2500" />
  <param key="device.battery.vehicleMass" value="500" />
  <param key="device.battery.maximumPower" value="1500" />
  <param key="device.battery.propulsionEfficiency" value="0.85" />
  <param key="device.battery.recuperationEfficiency" value="0.80" />
  <param key="device.battery.constantPowerIntake" value="90" />
  <param key="device.battery.maximumChargeRate" value="1500" />
</vType>


<vType id="Private_Car" vClass="passenger" accel="2.6" decel="4.5" sigma="0.5" length="4.5" width="1.8" maxSpeed="33.33" guiShape="passenger" lcStrategic="1.0" lcCooperative="1.0" lcSpeedGain="1.0" lcKeepRight="0.0" lcSublane="1.0" color="0.8,0.8,0.8">
</vType>

<vType id="CNG_Rickshaw" vClass="passenger" accel="0.8" decel="2.0" sigma="0.5" length="2.5" width="1.0" maxSpeed="8.33" guiShape="passenger" lcStrategic="1.0" lcCooperative="1.0" lcSpeedGain="0.5" lcKeepRight="0.0" lcSublane="1.0" color="0.9,0.7,0.2">
</vType>

<vType id="Bus" vClass="bus" accel="1.2" decel="3.0" sigma="0.5" length="12.0" width="2.5" maxSpeed="19.44" guiShape="bus" lcStrategic="1.0" lcCooperative="1.0" lcSpeedGain="1.0" lcKeepRight="1.0" lcSublane="0.0" color="0.2,0.4,0.8">
</vType>

<vType id="Truck" vClass="truck" accel="1.0" decel="3.5" sigma="0.5" length="7.5" width="2.4" maxSpeed="22.22" guiShape="truck" lcStrategic="1.0" lcCooperative="1.0" lcSpeedGain="0.8" lcKeepRight="1.0" lcSublane="0.0" color="0.6,0.3,0.1">
</vType>

<vType id="Motorcycle" vClass="motorcycle" accel="3.0" decel="5.0" sigma="0.5" length="2.2" width="0.8" maxSpeed="27.78" guiShape="motorcycle" lcStrategic="1.0" lcCooperative="1.0" lcSpeedGain="1.5" lcKeepRight="0.0" lcSublane="1.0" color="0.3,0.3,0.3">
</vType>




<!-- Route 1 (E0) Light Traffic (5 vehicles) --><!-- Route 2 (E3 E9) Light Traffic (5 vehicles) --><!-- Route 3 (E3 E3.189 -E4) Light Traffic (5 vehicles) --><!-- Route 4 (E2 -E1) Light Traffic (5 vehicles) --><!-- Route 5 (E2 -E8 E7) Light Traffic (5 vehicles) --><vehicle id="test_route1_direct" type="Easybike_ER-02B" depart="0.00" color="red">
  <route edges="E0" />
</vehicle>


<vehicle id="test_route2_dhormotola" type="Easybike_ER-02B" depart="0.00" color="blue">
  <route edges="E3 E9" />
</vehicle>


<vehicle id="test_route3_chachra" type="Easybike_ER-02B" depart="0.00" color="green">
  <route edges="E3 E3.189 -E4" />
</vehicle>


<vehicle id="test_route4_newmarket" type="Easybike_ER-02B" depart="0.00" color="yellow">
  <route edges="E2 -E1" />
</vehicle>


<vehicle id="test_route5_monihar" type="Easybike_ER-02B" depart="0.00" color="orange">
  <route edges="E2 -E8 E7" />
</vehicle>






<vehicle id="r1_v1" type="Easybike_ER-02B" depart="15.00"><route edges="E0" /></vehicle><vehicle id="r2_v1" type="Small_Easybike_V12" depart="15.00"><route edges="E3 E9" /></vehicle><vehicle id="r3_v1" type="Easybike_ER-02B" depart="15.00"><route edges="E3 E3.189 -E4" /></vehicle><vehicle id="r4_v1" type="Small_Easybike_V12" depart="15.00"><route edges="E2 -E1" /></vehicle><vehicle id="r5_v1" type="Easybike_ER-02B" depart="15.00"><route edges="E2 -E8 E7" /></vehicle><vehicle id="r1_v2" type="Small_Easybike_V12" depart="20.00"><route edges="E0" /></vehicle><vehicle id="r2_v2" type="Easybike_ER-02B" depart="20.00"><route edges="E3 E9" /></vehicle><vehicle id="r3_v2" type="Small_Easybike_V12" depart="20.00"><route edges="E3 E3.189 -E4" /></vehicle><vehicle id="r4_v2" type="Easybike_ER-02B" depart="20.00"><route edges="E2 -E1" /></vehicle><vehicle id="r5_v2" type="Small_Easybike_V12" depart="20.00"><route edges="E2 -E8 E7" /></vehicle><vehicle id="r1_v3" type="Private_Car" depart="25.00"><route edges="E0" /></vehicle><vehicle id="r2_v3" type="Private_Car" depart="25.00"><route edges="E3 E9" /></vehicle><vehicle id="r3_v3" type="Private_Car" depart="25.00"><route edges="E3 E3.189 -E4" /></vehicle><vehicle id="r4_v3" type="Private_Car" depart="25.00"><route edges="E2 -E1" /></vehicle><vehicle id="r5_v3" type="Private_Car" depart="25.00"><route edges="E2 -E8 E7" /></vehicle><vehicle id="r1_v4" type="Bus" depart="30.00"><route edges="E0" /></vehicle><vehicle id="r2_v4" type="Bus" depart="30.00"><route edges="E3 E9" /></vehicle><vehicle id="r3_v4" type="Bus" depart="30.00"><route edges="E3 E3.189 -E4" /></vehicle><vehicle id="r4_v4" type="Bus" depart="30.00"><route edges="E2 -E1" /></vehicle><vehicle id="r5_v4" type="Bus" depart="30.00"><route edges="E2 -E8 E7" /></vehicle><vehicle id="r1_v5" type="Easybike_ER-02B" depart="35.00"><route edges="E0" /></vehicle><vehicle id="r2_v5" type="Small_Easybike_V12" depart="35.00"><route edges="E3 E9" /></vehicle><vehicle id="r3_v5" type="Easybike_ER-02B" depart="35.00"><route edges="E3 E3.189 -E4" /></vehicle><vehicle id="r4_v5" type="Small_Easybike_V12" depart="35.00"><route edges="E2 -E1" /></vehicle><vehicle id="r5_v5" type="Easybike_ER-02B" depart="35.00"><route edges="E2 -E8 E7" /></vehicle></routes>