<?xml version="1.0" encoding="UTF-8"?>

<!-- generated on 2025-11-19 00:38:32 by Eclipse SUMO netedit Version 1.22.0
<neteditConfiguration xmlns:xsi="http://www.w3.org/2001/XMLSchema-instance" xsi:noNamespaceSchemaLocation="http://sumo.dlr.de/xsd/neteditConfiguration.xsd">

    <input>
        <sumocfg-file value="C:\Users\mushf\OneDrive\Desktop\Route Optimization of EV\CustomRoadNetwork.sumocfg"/>
        <additional-files value="C:\Users\mushf\OneDrive\Desktop\Route Optimization of EV\chargingStations.add.xml"/>
        <route-files value="C:\Users\mushf\OneDrive\Desktop\Route Optimization of EV\CustomRoadNetwork.rou.xml"/>
        <sumo-net-file value="C:\Users\mushf\OneDrive\Desktop\Route Optimization of EV\CustomRoadNetwork.net.xml"/>
    </input>

    <output>
        <output-file value="C:\Users\mushf\OneDrive\Desktop\Route Optimization of EV\CustomRoadNetwork.net.xml"/>
    </output>

    <processing>
        <geometry.min-radius.fix.railways value="false"/>
        <geometry.max-grade.fix value="false"/>
        <offset.disable-normalization value="true"/>
        <lefthand value="0"/>
    </processing>

    <junctions>
        <no-turnarounds value="true"/>
        <junctions.corner-detail value="5"/>
        <junctions.limit-turn-speed value="5.50"/>
        <rectangular-lane-cut value="0"/>
    </junctions>

    <pedestrian>
        <walkingareas value="0"/>
    </pedestrian>

    <netedit>
        <ignore.routeelements value="false"/>
    </netedit>

</neteditConfiguration>
-->

<net version="1.20" junctionCornerDetail="5" limitTurnSpeed="5.50" xmlns:xsi="http://www.w3.org/2001/XMLSchema-instance" xsi:noNamespaceSchemaLocation="http://sumo.dlr.de/xsd/net_file.xsd">

    <location netOffset="0.00,0.00" convBoundary="-218.70,-215.27,223.72,214.90" origBoundary="-10000000000.00,-10000000000.00,10000000000.00,10000000000.00" projParameter="!"/>

    <edge id=":Chachra_0" function="internal">
        <lane id=":Chachra_0_0" index="0" speed="6.52" length="14.57" shape="-153.08,-179.42 -156.94,-183.87 -159.86,-185.85 -161.82,-185.37 -162.84,-182.42"/>
        <lane id=":Chachra_0_1" index="1" speed="8.11" length="23.43" shape="-151.00,-181.97 -156.79,-188.38 -161.22,-190.66 -164.30,-188.81 -166.01,-182.83"/>
    </edge>
    <edge id=":Chachra_2" function="internal">
        <lane id=":Chachra_2_0" index="0" speed="8.45" length="24.63" shape="-151.00,-181.97 -153.94,-188.24 -153.46,-193.91 -149.83,-197.90 -143.34,-199.15"/>
    </edge>
    <edge id=":Chachra_3" function="internal">
        <lane id=":Chachra_3_0" index="0" speed="5.55" length="9.78" shape="-144.16,-192.71 -147.17,-192.54 -148.63,-191.54 -148.53,-189.69 -146.88,-187.01"/>
    </edge>
    <edge id=":Chachra_4" function="internal">
        <lane id=":Chachra_4_0" index="0" speed="10.45" length="23.76" shape="-144.16,-192.71 -151.78,-192.50 -157.43,-190.71 -161.12,-187.35 -162.84,-182.42"/>
        <lane id=":Chachra_4_1" index="1" speed="11.47" length="28.83" shape="-143.76,-195.89 -152.80,-195.58 -159.52,-193.30 -163.92,-189.05 -166.01,-182.83"/>
    </edge>
    <edge id=":Chachra_6" function="internal">
        <lane id=":Chachra_6_0" index="0" speed="13.31" length="39.00" shape="-172.36,-183.64 -169.54,-192.43 -163.70,-198.47 -154.83,-201.77 -142.94,-202.33"/>
        <lane id=":Chachra_6_1" index="1" speed="12.44" length="33.92" shape="-169.18,-183.23 -166.73,-190.73 -161.61,-195.88 -153.81,-198.69 -143.34,-199.15"/>
    </edge>
    <edge id=":Chachra_8" function="internal">
        <lane id=":Chachra_8_0" index="0" speed="8.65" length="6.29" shape="-169.18,-183.23 -166.59,-188.96"/>
    </edge>
    <edge id=":Chachra_9" function="internal">
        <lane id=":Chachra_9_0" index="0" speed="8.65" length="20.42" shape="-166.59,-188.96 -166.39,-189.39 -161.13,-191.36 -154.84,-189.59 -148.95,-184.47"/>
    </edge>
    <edge id=":Dhormotola_0" function="internal">
        <lane id=":Dhormotola_0_0" index="0" speed="6.32" length="9.01" shape="-184.92,33.87 -187.39,33.70 -189.26,34.40 -190.53,35.97 -191.19,38.41"/>
    </edge>
    <edge id=":Dhormotola_1" function="internal">
        <lane id=":Dhormotola_1_0" index="0" speed="9.57" length="19.38" shape="-184.41,30.71 -189.53,28.87 -192.99,25.97 -194.77,21.98 -194.89,16.92"/>
    </edge>
    <edge id=":Dhormotola_2" function="internal">
        <lane id=":Dhormotola_2_0" index="0" speed="6.82" length="9.41" shape="-188.54,17.74 -188.48,20.17 -187.60,22.09 -185.90,23.48 -183.38,24.36"/>
    </edge>
    <edge id=":Dhormotola_3" function="internal">
        <lane id=":Dhormotola_3_0" index="0" speed="13.89" length="20.84" shape="-188.54,17.74 -191.19,38.41"/>
        <lane id=":Dhormotola_3_1" index="1" speed="13.89" length="20.84" shape="-191.71,17.33 -194.37,38.00"/>
    </edge>
    <edge id=":Dhormotola_5" function="internal">
        <lane id=":Dhormotola_5_0" index="0" speed="13.89" length="20.84" shape="-200.72,37.18 -198.06,16.51"/>
        <lane id=":Dhormotola_5_1" index="1" speed="13.89" length="20.84" shape="-197.54,37.59 -194.89,16.92"/>
    </edge>
    <edge id=":Dhormotola_7" function="internal">
        <lane id=":Dhormotola_7_0" index="0" speed="9.08" length="5.14" shape="-197.54,37.59 -196.19,32.64"/>
    </edge>
    <edge id=":Dhormotola_8" function="internal">
        <lane id=":Dhormotola_8_0" index="0" speed="9.08" length="14.58" shape="-196.19,32.64 -196.08,32.23 -193.32,28.77 -189.26,27.20 -183.89,27.52"/>
    </edge>
    <edge id=":Doratana_0" function="internal">
        <lane id=":Doratana_0_0" index="0" speed="9.62" length="21.19" shape="-42.62,62.53 -45.19,61.01 -49.17,61.54 -54.55,64.13 -61.35,68.76"/>
    </edge>
    <edge id=":Doratana_1" function="internal">
        <lane id=":Doratana_1_0" index="0" speed="13.89" length="27.82" shape="-42.62,62.53 -46.08,59.63 -51.60,57.53 -59.20,56.23 -68.88,55.74"/>
    </edge>
    <edge id=":Doratana_2" function="internal">
        <lane id=":Doratana_2_0" index="0" speed="13.89" length="25.10" shape="-42.62,62.53 -46.22,56.91 -48.66,51.70 -50.64,46.24 -52.90,39.89"/>
        <lane id=":Doratana_2_1" index="1" speed="13.89" length="25.10" shape="-39.36,61.56 -43.04,55.95 -45.56,50.68 -47.61,45.17 -49.89,38.78"/>
    </edge>
    <edge id=":Doratana_4" function="internal">
        <lane id=":Doratana_4_0" index="0" speed="8.87" length="6.31" shape="-39.36,61.56 -42.32,56.10 -42.32,56.00"/>
    </edge>
    <edge id=":Doratana_25" function="internal">
        <lane id=":Doratana_25_0" index="0" speed="8.87" length="15.60" shape="-42.32,56.00 -42.39,51.51 -39.55,47.77 -33.81,44.90"/>
    </edge>
    <edge id=":Doratana_5" function="internal">
        <lane id=":Doratana_5_0" index="0" speed="6.37" length="10.84" shape="-31.85,50.96 -34.21,52.29 -35.16,54.17 -34.70,56.62 -32.83,59.62"/>
    </edge>
    <edge id=":Doratana_6" function="internal">
        <lane id=":Doratana_6_0" index="0" speed="13.89" length="34.56" shape="-31.85,50.96 -39.33,54.26 -47.15,58.81 -54.70,63.89 -61.35,68.76"/>
    </edge>
    <edge id=":Doratana_7" function="internal">
        <lane id=":Doratana_7_0" index="0" speed="13.89" length="37.08" shape="-31.85,50.96 -40.22,53.08 -50.16,54.59 -60.20,55.48 -68.88,55.74"/>
        <lane id=":Doratana_7_1" index="1" speed="13.89" length="37.08" shape="-32.83,47.92 -41.09,50.01 -50.78,51.47 -60.57,52.31 -69.13,52.54"/>
    </edge>
    <edge id=":Doratana_9" function="internal">
        <lane id=":Doratana_9_0" index="0" speed="9.93" length="6.01" shape="-32.83,47.92 -38.44,48.89 -38.75,48.81"/>
    </edge>
    <edge id=":Doratana_26" function="internal">
        <lane id=":Doratana_26_0" index="0" speed="9.93" length="15.89" shape="-38.75,48.81 -43.15,47.69 -46.97,44.32 -49.89,38.78"/>
    </edge>
    <edge id=":Doratana_10" function="internal">
        <lane id=":Doratana_10_0" index="0" speed="7.46" length="11.90" shape="-43.91,36.57 -42.30,39.69 -40.24,41.61 -37.74,42.33 -34.80,41.85"/>
    </edge>
    <edge id=":Doratana_11" function="internal">
        <lane id=":Doratana_11_0" index="0" speed="13.89" length="25.58" shape="-43.91,36.57 -41.57,43.02 -39.37,48.66 -36.67,54.02 -32.83,59.62"/>
        <lane id=":Doratana_11_1" index="1" speed="13.89" length="25.58" shape="-46.91,37.68 -44.61,44.10 -42.51,49.70 -39.91,55.01 -36.12,60.60"/>
    </edge>
    <edge id=":Doratana_13" function="internal">
        <lane id=":Doratana_13_0" index="0" speed="13.89" length="3.10" shape="-46.91,37.68 -46.56,40.76"/>
    </edge>
    <edge id=":Doratana_14" function="internal">
        <lane id=":Doratana_14_0" index="0" speed="10.57" length="2.72" shape="-46.91,37.68 -46.70,40.39"/>
    </edge>
    <edge id=":Doratana_27" function="internal">
        <lane id=":Doratana_27_0" index="0" speed="13.89" length="31.88" shape="-46.56,40.76 -46.16,44.19 -48.63,51.11 -54.32,58.44 -63.24,66.18"/>
    </edge>
    <edge id=":Doratana_28" function="internal">
        <lane id=":Doratana_28_0" index="0" speed="10.57" length="30.01" shape="-46.70,40.39 -46.31,45.33 -50.69,49.87 -58.73,52.04 -69.13,52.54"/>
    </edge>
    <edge id=":Doratana_15" function="internal">
        <lane id=":Doratana_15_0" index="0" speed="8.39" length="20.22" shape="-69.64,46.13 -61.39,45.86 -55.85,44.73 -53.02,42.74 -52.90,39.89"/>
    </edge>
    <edge id=":Doratana_16" function="internal">
        <lane id=":Doratana_16_0" index="0" speed="13.89" length="35.60" shape="-69.64,46.13 -61.31,45.99 -52.02,45.26 -42.83,43.90 -34.80,41.85"/>
        <lane id=":Doratana_16_1" index="1" speed="13.89" length="35.60" shape="-69.38,49.33 -60.94,49.17 -51.40,48.39 -41.96,46.97 -33.81,44.90"/>
    </edge>
    <edge id=":Doratana_18" function="internal">
        <lane id=":Doratana_18_0" index="0" speed="13.89" length="6.98" shape="-69.38,49.33 -62.42,49.86"/>
    </edge>
    <edge id=":Doratana_19" function="internal">
        <lane id=":Doratana_19_0" index="0" speed="8.00" length="2.44" shape="-69.38,49.33 -67.04,50.03"/>
    </edge>
    <edge id=":Doratana_29" function="internal">
        <lane id=":Doratana_29_0" index="0" speed="13.89" length="29.19" shape="-62.42,49.86 -58.01,50.20 -48.67,52.36 -41.37,55.83 -36.12,60.60"/>
    </edge>
    <edge id=":Doratana_30" function="internal">
        <lane id=":Doratana_30_0" index="0" speed="8.00" length="21.58" shape="-67.04,50.03 -63.10,51.19 -59.60,55.57 -59.44,61.04 -63.24,66.18"/>
    </edge>
    <edge id=":Doratana_20" function="internal">
        <lane id=":Doratana_20_0" index="0" speed="5.46" length="10.29" shape="-67.00,61.04 -64.53,58.75 -64.02,57.11 -65.47,56.10 -68.88,55.74"/>
    </edge>
    <edge id=":Doratana_21" function="internal">
        <lane id=":Doratana_21_0" index="0" speed="12.21" length="26.82" shape="-67.00,61.04 -59.68,54.85 -54.89,49.26 -52.63,44.27 -52.90,39.89"/>
    </edge>
    <edge id=":Doratana_22" function="internal">
        <lane id=":Doratana_22_0" index="0" speed="13.89" length="37.09" shape="-67.00,61.04 -59.94,55.95 -51.46,50.39 -42.70,45.36 -34.80,41.85"/>
        <lane id=":Doratana_22_1" index="1" speed="13.89" length="37.09" shape="-65.11,63.63 -58.19,58.61 -50.02,53.21 -41.58,48.33 -33.81,44.90"/>
    </edge>
    <edge id=":Doratana_24" function="internal">
        <lane id=":Doratana_24_0" index="0" speed="11.95" length="32.59" shape="-65.11,63.63 -55.91,57.84 -48.01,55.41 -41.41,56.33 -36.12,60.60"/>
    </edge>
    <edge id=":Monihar_0" function="internal">
        <lane id=":Monihar_0_0" index="0" speed="13.89" length="21.63" shape="86.73,-11.46 84.54,-5.86 83.91,-1.55 83.90,2.94 83.57,9.08"/>
        <lane id=":Monihar_0_1" index="1" speed="13.89" length="21.63" shape="83.81,-12.79 81.60,-6.98 80.86,-2.25 80.75,2.65 80.37,8.98"/>
    </edge>
    <edge id=":Monihar_2" function="internal">
        <lane id=":Monihar_2_0" index="0" speed="13.89" length="3.96" shape="83.81,-12.79 81.76,-9.40"/>
    </edge>
    <edge id=":Monihar_9" function="internal">
        <lane id=":Monihar_9_0" index="0" speed="13.89" length="20.00" shape="81.76,-9.40 80.46,-7.26 76.68,-3.48 72.14,-0.36 66.52,3.17"/>
    </edge>
    <edge id=":Monihar_3" function="internal">
        <lane id=":Monihar_3_0" index="0" speed="13.89" length="21.74" shape="62.56,-1.90 67.90,-5.05 71.80,-7.33 74.94,-10.28 78.01,-15.42"/>
        <lane id=":Monihar_3_1" index="1" speed="13.89" length="21.74" shape="64.53,0.63 70.00,-2.72 74.19,-5.43 77.64,-8.80 80.92,-14.10"/>
    </edge>
    <edge id=":Monihar_5" function="internal">
        <lane id=":Monihar_5_0" index="0" speed="8.30" length="23.35" shape="64.53,0.63 70.68,-1.74 75.98,-0.93 79.51,2.74 80.37,8.98"/>
    </edge>
    <edge id=":Monihar_6" function="internal">
        <lane id=":Monihar_6_0" index="0" speed="5.53" length="9.50" shape="74.02,8.79 73.97,5.90 73.03,4.42 71.20,4.35 68.49,5.70"/>
    </edge>
    <edge id=":Monihar_7" function="internal">
        <lane id=":Monihar_7_0" index="0" speed="13.89" length="24.11" shape="74.02,8.79 74.49,2.08 74.79,-3.67 75.71,-9.24 78.01,-15.42"/>
        <lane id=":Monihar_7_1" index="1" speed="13.89" length="24.11" shape="77.23,8.89 77.63,2.36 77.79,-2.99 78.60,-8.14 80.92,-14.10"/>
    </edge>
    <edge id=":Muroli_0" function="internal">
        <lane id=":Muroli_0_0" index="0" speed="8.78" length="26.24" shape="210.91,-218.84 217.80,-216.81 221.50,-212.32 221.70,-206.39 218.10,-200.04"/>
        <lane id=":Muroli_0_1" index="1" speed="7.98" length="21.44" shape="210.66,-215.65 217.13,-214.47 220.13,-211.85 219.68,-207.77 215.77,-202.24"/>
    </edge>
    <edge id=":Muroli_2" function="internal">
        <lane id=":Muroli_2_0" index="0" speed="4.04" length="4.30" shape="211.20,-206.57 211.98,-207.68 212.07,-208.50 211.46,-209.03 210.17,-209.27"/>
        <lane id=":Muroli_2_1" index="1" speed="6.34" length="12.90" shape="213.53,-204.37 215.85,-207.70 216.11,-210.16 214.30,-211.75 210.41,-212.46"/>
    </edge>
    <edge id=":New_Market_0" function="internal">
        <lane id=":New_Market_0_0" index="0" speed="13.89" length="24.50" shape="14.66,171.62 8.55,174.18 2.89,174.96 -2.98,174.56 -9.74,173.58"/>
        <lane id=":New_Market_0_1" index="1" speed="13.89" length="24.50" shape="13.99,168.34 8.15,171.05 2.90,171.86 -2.61,171.43 -9.20,170.42"/>
    </edge>
    <edge id=":New_Market_2" function="internal">
        <lane id=":New_Market_2_0" index="0" speed="8.53" length="6.24" shape="13.99,168.34 8.66,170.43 8.16,170.31"/>
    </edge>
    <edge id=":New_Market_8" function="internal">
        <lane id=":New_Market_8_0" index="0" speed="8.53" length="15.69" shape="8.16,170.31 4.63,169.47 1.91,165.45 0.50,158.39"/>
    </edge>
    <edge id=":New_Market_3" function="internal">
        <lane id=":New_Market_3_0" index="0" speed="5.63" length="8.93" shape="6.95,158.06 7.52,160.84 8.66,162.36 10.35,162.60 12.61,161.58"/>
    </edge>
    <edge id=":New_Market_4" function="internal">
        <lane id=":New_Market_4_0" index="0" speed="9.03" length="21.57" shape="3.75,158.22 3.40,164.33 1.12,168.40 -3.08,170.43 -9.20,170.42"/>
    </edge>
    <edge id=":New_Market_5" function="internal">
        <lane id=":New_Market_5_0" index="0" speed="6.20" length="9.51" shape="-8.15,164.21 -5.55,164.18 -3.77,163.22 -2.82,161.35 -2.70,158.55"/>
    </edge>
    <edge id=":New_Market_6" function="internal">
        <lane id=":New_Market_6_0" index="0" speed="13.89" length="22.24" shape="-8.15,164.21 -1.90,165.16 2.80,165.47 7.23,164.49 12.61,161.58"/>
        <lane id=":New_Market_6_1" index="1" speed="13.89" length="22.24" shape="-8.68,167.37 -2.27,168.31 2.82,168.63 7.65,167.71 13.30,164.94"/>
    </edge>
    <edge id=":Palbari_0" function="internal">
        <lane id=":Palbari_0_0" index="0" speed="12.02" length="46.35" shape="-190.04,208.26 -202.99,211.06 -213.03,208.35 -219.08,200.46 -220.05,187.74"/>
        <lane id=":Palbari_0_1" index="1" speed="11.09" length="39.29" shape="-191.28,205.31 -202.28,207.72 -210.85,205.50 -216.03,198.89 -216.88,188.15"/>
    </edge>
    <edge id=":Palbari_2" function="internal">
        <lane id=":Palbari_2_0" index="0" speed="7.70" length="3.56" shape="-191.28,205.31 -194.83,205.53"/>
    </edge>
    <edge id=":Palbari_8" function="internal">
        <lane id=":Palbari_8_0" index="0" speed="7.70" length="20.21" shape="-194.83,205.53 -197.58,205.71 -202.22,202.51 -204.01,197.23 -201.79,191.40"/>
    </edge>
    <edge id=":Palbari_3" function="internal">
        <lane id=":Palbari_3_0" index="0" speed="5.55" length="11.47" shape="-196.80,195.35 -199.07,198.57 -199.32,200.32 -197.55,200.59 -193.76,199.39"/>
    </edge>
    <edge id=":Palbari_4" function="internal">
        <lane id=":Palbari_4_0" index="0" speed="7.96" length="24.80" shape="-199.31,193.37 -204.98,197.28 -211.02,197.48 -215.59,194.33 -216.88,188.15"/>
    </edge>
    <edge id=":Palbari_5" function="internal">
        <lane id=":Palbari_5_0" index="0" speed="5.77" length="12.15" shape="-210.53,188.96 -210.60,192.54 -209.58,193.80 -207.48,192.76 -204.30,189.42"/>
    </edge>
    <edge id=":Palbari_6" function="internal">
        <lane id=":Palbari_6_0" index="0" speed="9.22" length="26.68" shape="-210.53,188.96 -210.35,196.41 -207.50,200.64 -201.97,201.63 -193.76,199.39"/>
        <lane id=":Palbari_6_1" index="1" speed="10.38" length="34.19" shape="-213.70,188.56 -213.51,198.25 -209.92,203.78 -202.92,205.14 -192.52,202.34"/>
    </edge>

    <edge id="-E0" from="Doratana" to="Palbari" priority="-1" length="2410.14" shape="-44.04,49.98 -45.95,51.38 -47.86,52.77 -49.75,54.16 -51.63,55.54 -53.49,56.92 -55.35,58.29 -57.19,59.65 -59.01,61.01 -60.83,62.37 -62.64,63.72 -64.43,65.07 -66.21,66.41 -67.98,67.74 -69.73,69.08 -71.48,70.41 -73.22,71.73 -74.94,73.05 -76.65,74.37 -78.36,75.68 -80.05,76.99 -81.73,78.30 -83.40,79.61 -85.06,80.91 -86.71,82.21 -88.36,83.50 -89.99,84.80 -91.61,86.09 -93.22,87.38 -94.83,88.67 -96.42,89.95 -98.01,91.24 -99.58,92.52 -101.15,93.80 -102.71,95.08 -104.26,96.36 -105.80,97.63 -107.33,98.91 -108.86,100.19 -110.38,101.46 -111.89,102.74 -113.39,104.01 -114.89,105.29 -116.37,106.56 -117.86,107.84 -119.33,109.11 -120.80,110.39 -122.26,111.67 -123.71,112.94 -125.16,114.22 -126.60,115.50 -128.03,116.78 -129.46,118.07 -130.88,119.35 -132.30,120.63 -133.71,121.92 -135.11,123.21 -136.51,124.50 -137.91,125.80 -139.30,127.09 -140.68,128.39 -142.06,129.69 -143.44,131.00 -144.81,132.30 -146.18,133.62 -147.54,134.93 -148.90,136.25 -150.25,137.57 -151.60,138.89 -152.95,140.22 -154.29,141.55 -155.63,142.89 -156.97,144.23 -158.30,145.58 -159.63,146.93 -160.96,148.28 -162.28,149.64 -163.60,151.01 -164.92,152.38 -166.24,153.76 -167.56,155.14 -168.87,156.52 -170.18,157.92 -171.49,159.32 -172.80,160.72 -174.11,162.13 -175.41,163.55 -176.72,164.97 -178.02,166.41 -179.33,167.84 -180.63,169.29 -181.93,170.74 -183.23,172.20 -184.53,173.67 -185.83,175.14 -187.13,176.62 -188.43,178.11 -189.73,179.61 -191.03,181.12 -192.34,182.63 -193.64,184.16 -194.94,185.69 -196.25,187.23 -197.55,188.78 -198.86,190.34 -200.17,191.90 -201.48,193.48 -202.79,195.07 -204.10,196.66 -205.42,198.27 -206.73,199.89 -208.05,201.51 -209.37,203.15 -210.70,204.80 -212.02,206.45 -213.35,208.12 -214.69,209.80 -216.02,211.49 -217.36,213.19 -218.70,214.90">
        <lane id="-E0_0" index="0" speed="13.89" length="2410.14" shape="-61.35,68.76 -61.54,68.90 -63.32,70.25 -65.08,71.56 -66.82,72.90 -68.58,74.23 -70.31,75.55 -72.01,76.85 -73.72,78.18 -75.43,79.48 -77.10,80.78 -78.77,82.08 -80.44,83.39 -82.09,84.68 -83.75,85.99 -85.39,87.27 -87.00,88.55 -88.61,89.84 -90.22,91.13 -91.82,92.41 -93.40,93.68 -94.98,94.96 -96.55,96.24 -98.11,97.52 -99.66,98.79 -101.20,100.06 -102.73,101.32 -104.25,102.59 -105.78,103.87 -107.29,105.13 -108.79,106.40 -110.28,107.67 -111.77,108.94 -113.24,110.20 -114.73,111.48 -116.18,112.74 -117.64,114.00 -119.10,115.28 -120.54,116.54 -121.98,117.81 -123.40,119.08 -124.82,120.35 -126.25,121.63 -127.67,122.92 -129.07,124.18 -130.46,125.46 -131.86,126.74 -133.25,128.02 -134.64,129.32 -136.02,130.60 -137.39,131.88 -138.76,133.18 -140.14,134.48 -141.49,135.77 -142.85,137.08 -144.20,138.38 -145.55,139.69 -146.89,141.00 -148.24,142.32 -149.57,143.63 -150.90,144.95 -152.24,146.28 -153.56,147.61 -154.88,148.95 -156.21,150.30 -157.53,151.64 -158.83,152.98 -160.14,154.34 -161.46,155.70 -162.77,157.08 -164.09,158.45 -165.38,159.81 -166.68,161.20 -167.99,162.60 -169.29,163.99 -170.58,165.38 -171.88,166.80 -173.17,168.21 -174.47,169.64 -175.77,171.06 -177.06,172.49 -178.35,173.94 -179.64,175.39 -180.93,176.85 -182.23,178.31 -183.52,179.78 -184.81,181.26 -186.10,182.75 -187.40,184.26 -188.70,185.76 -189.98,187.27 -191.28,188.80 -192.58,190.33 -193.87,191.87 -195.18,193.43 -196.48,194.98 -196.80,195.35"/>
        <lane id="-E0_1" index="1" speed="13.89" length="2410.14" shape="-63.24,66.18 -63.47,66.35 -65.25,67.69 -67.01,69.01 -68.76,70.35 -70.51,71.68 -72.25,73.00 -73.96,74.32 -75.67,75.64 -77.38,76.95 -79.07,78.25 -80.74,79.56 -82.41,80.87 -84.07,82.17 -85.72,83.47 -87.37,84.76 -88.99,86.05 -90.61,87.34 -92.22,88.63 -93.83,89.92 -95.41,91.19 -97.00,92.48 -98.57,93.76 -100.14,95.04 -101.69,96.32 -103.24,97.59 -104.78,98.86 -106.30,100.14 -107.83,101.42 -109.35,102.68 -110.86,103.96 -112.35,105.23 -113.85,106.51 -115.33,107.77 -116.82,109.05 -118.28,110.32 -119.75,111.59 -121.21,112.87 -122.65,114.14 -124.10,115.42 -125.53,116.69 -126.96,117.97 -128.39,119.26 -129.81,120.54 -131.22,121.81 -132.63,123.10 -134.03,124.39 -135.42,125.67 -136.82,126.97 -138.21,128.26 -139.58,129.55 -140.96,130.85 -142.34,132.16 -143.70,133.46 -145.07,134.77 -146.43,136.08 -147.78,137.40 -149.13,138.71 -150.48,140.03 -151.82,141.36 -153.16,142.68 -154.50,144.02 -155.83,145.36 -157.16,146.70 -158.49,148.05 -159.82,149.40 -161.13,150.75 -162.45,152.12 -163.77,153.49 -165.08,154.87 -166.40,156.24 -167.71,157.62 -169.01,159.01 -170.32,160.41 -171.63,161.81 -172.93,163.21 -174.23,164.63 -175.54,166.05 -176.84,167.49 -178.14,168.91 -179.44,170.36 -180.74,171.81 -182.03,173.26 -183.33,174.73 -184.63,176.20 -185.93,177.67 -187.22,179.16 -188.52,180.66 -189.82,182.17 -191.13,183.67 -192.42,185.20 -193.72,186.73 -195.03,188.26 -196.32,189.81 -197.63,191.37 -198.94,192.93 -199.31,193.37"/>
    </edge>
    <edge id="-E1" from="New_Market" to="Doratana" priority="-1" length="1320.31" shape="2.93,170.72 2.75,167.19 2.54,163.74 2.28,160.37 1.99,157.07 1.66,153.85 1.30,150.70 0.91,147.63 0.48,144.62 0.02,141.69 -0.47,138.82 -0.99,136.02 -1.53,133.29 -2.10,130.63 -2.70,128.03 -3.32,125.49 -3.97,123.02 -4.64,120.61 -5.33,118.26 -6.04,115.96 -6.77,113.73 -7.51,111.55 -8.28,109.43 -9.06,107.36 -9.85,105.35 -10.66,103.39 -11.48,101.48 -12.31,99.62 -13.16,97.81 -14.01,96.04 -14.87,94.33 -15.74,92.66 -16.61,91.03 -17.49,89.45 -18.37,87.91 -19.26,86.42 -20.15,84.96 -21.03,83.54 -21.92,82.16 -22.81,80.82 -23.69,79.51 -24.57,78.24 -25.44,77.00 -26.31,75.79 -27.17,74.62 -28.03,73.47 -28.87,72.36 -29.71,71.27 -30.53,70.21 -31.34,69.18 -32.14,68.17 -32.92,67.18 -33.68,66.22 -34.43,65.28 -35.17,64.36 -35.88,63.45 -36.57,62.57 -37.24,61.70 -37.89,60.85 -38.52,60.01 -39.12,59.19 -39.70,58.38 -40.25,57.58 -40.77,56.79 -41.26,56.01 -41.72,55.24 -42.16,54.48 -42.56,53.72 -42.92,52.97 -43.26,52.22 -43.55,51.47 -43.81,50.73 -44.04,49.98">
        <lane id="-E1_0" index="0" speed="13.89" length="1320.31" shape="-2.70,158.55 -2.79,157.52 -3.11,154.37 -3.47,151.27 -3.85,148.27 -4.27,145.33 -4.72,142.47 -5.20,139.66 -5.70,136.92 -6.23,134.26 -6.79,131.67 -7.37,129.14 -7.97,126.67 -8.60,124.27 -9.26,121.93 -9.93,119.64 -10.61,117.41 -11.32,115.25 -12.04,113.14 -12.78,111.10 -13.54,109.08 -14.30,107.14 -15.08,105.25 -15.88,103.40 -16.67,101.62 -17.50,99.87 -18.32,98.16 -19.14,96.52 -19.99,94.90 -20.82,93.33 -21.67,91.81 -22.51,90.33 -23.37,88.90 -24.24,87.47 -25.09,86.10 -25.94,84.79 -26.80,83.49 -27.66,82.21 -28.51,80.99 -29.35,79.78 -30.19,78.61 -31.03,77.48 -31.87,76.36 -32.68,75.27 -33.51,74.20 -34.31,73.16 -35.11,72.15 -35.91,71.15 -36.69,70.15 -37.44,69.21 -38.18,68.28 -38.93,67.34 -39.66,66.41 -40.36,65.52 -41.05,64.62 -41.72,63.75 -42.38,62.87 -42.62,62.53"/>
        <lane id="-E1_1" index="1" speed="13.89" length="1320.31" shape="0.50,158.39 0.40,157.22 0.07,154.02 -0.29,150.89 -0.68,147.84 -1.10,144.86 -1.56,141.95 -2.05,139.10 -2.56,136.32 -3.10,133.61 -3.66,130.98 -4.26,128.40 -4.87,125.88 -5.51,123.44 -6.18,121.05 -6.86,118.72 -7.56,116.44 -8.29,114.24 -9.02,112.08 -9.78,109.99 -10.55,107.93 -11.33,105.95 -12.13,104.01 -12.95,102.12 -13.76,100.29 -14.61,98.50 -15.45,96.75 -16.29,95.06 -17.16,93.41 -18.01,91.80 -18.88,90.24 -19.75,88.72 -20.63,87.25 -21.51,85.80 -22.38,84.39 -23.26,83.04 -24.14,81.71 -25.01,80.41 -25.88,79.16 -26.74,77.93 -27.60,76.73 -28.46,75.57 -29.31,74.43 -30.14,73.33 -30.98,72.25 -31.79,71.19 -32.60,70.17 -33.40,69.16 -34.18,68.17 -34.93,67.22 -35.68,66.28 -36.42,65.35 -37.14,64.44 -37.83,63.55 -38.51,62.67 -39.17,61.82 -39.36,61.56"/>
    </edge>
    <edge id="-E2" from="New_Market" to="Palbari" priority="-1" length="2300.07" shape="2.93,170.72 1.34,170.45 -0.25,170.20 -1.82,169.94 -3.38,169.69 -4.92,169.45 -6.46,169.21 -7.99,168.98 -9.50,168.76 -11.00,168.54 -12.50,168.32 -13.99,168.11 -15.46,167.91 -16.93,167.72 -18.40,167.53 -19.85,167.35 -21.30,167.18 -22.75,167.01 -24.19,166.85 -25.62,166.70 -27.05,166.56 -28.48,166.43 -29.90,166.30 -31.32,166.18 -32.74,166.07 -34.16,165.97 -35.57,165.88 -36.99,165.80 -38.40,165.73 -39.81,165.66 -41.23,165.61 -42.65,165.56 -44.07,165.53 -45.49,165.51 -46.91,165.49 -48.34,165.49 -49.77,165.50 -51.21,165.52 -52.65,165.55 -54.09,165.59 -55.55,165.64 -57.00,165.70 -58.47,165.78 -59.94,165.87 -61.42,165.97 -62.91,166.08 -64.41,166.20 -65.92,166.34 -67.44,166.49 -68.97,166.65 -70.51,166.83 -72.06,167.02 -73.62,167.22 -75.20,167.44 -76.79,167.67 -78.39,167.91 -80.01,168.17 -81.64,168.44 -83.29,168.73 -84.95,169.03 -86.63,169.35 -88.32,169.68 -90.03,170.03 -91.76,170.39 -93.51,170.77 -95.28,171.17 -97.06,171.58 -98.87,172.00 -100.69,172.45 -102.54,172.91 -104.41,173.38 -106.30,173.88 -108.21,174.39 -110.15,174.91 -112.10,175.46 -114.08,176.02 -116.09,176.60 -118.12,177.20 -120.18,177.81 -122.26,178.45 -124.37,179.10 -126.50,179.77 -128.66,180.46 -130.86,181.17 -133.07,181.90 -135.32,182.64 -137.60,183.41 -139.91,184.20 -142.24,185.00 -144.61,185.83 -147.01,186.68 -149.44,187.54 -151.91,188.43 -154.40,189.34 -156.93,190.27 -159.50,191.22 -162.10,192.19 -164.73,193.18 -167.40,194.19 -170.10,195.23 -172.85,196.29 -175.63,197.37 -178.44,198.47 -181.30,199.59 -184.19,200.74 -187.12,201.91 -190.09,203.10 -193.11,204.32 -196.16,205.56 -199.25,206.82 -202.39,208.11 -205.56,209.42 -208.78,210.76 -212.05,212.11 -215.35,213.50 -218.70,214.90">
        <lane id="-E2_0" index="0" speed="13.89" length="2300.07" shape="-9.74,173.58 -10.19,173.51 -11.70,173.29 -13.18,173.07 -14.65,172.86 -16.09,172.67 -17.55,172.48 -19.00,172.29 -20.43,172.12 -21.86,171.95 -23.29,171.78 -24.71,171.62 -26.10,171.48 -27.50,171.34 -28.92,171.21 -30.32,171.08 -31.71,170.96 -33.09,170.86 -34.48,170.76 -35.86,170.67 -37.24,170.59 -38.64,170.52 -40.01,170.46 -41.40,170.41 -42.79,170.36 -44.15,170.33 -45.56,170.31 -46.94,170.29 -48.32,170.29 -49.72,170.30 -51.13,170.32 -52.53,170.35 -53.94,170.39 -55.37,170.44 -56.77,170.49 -58.19,170.57 -59.63,170.66 -61.08,170.76 -62.54,170.87 -64.00,170.98 -65.46,171.12 -66.95,171.27 -68.44,171.42 -69.94,171.60 -71.46,171.78 -72.98,171.98 -74.53,172.19 -76.09,172.42 -77.65,172.65 -79.24,172.91 -80.83,173.17 -82.45,173.46 -84.07,173.75 -85.72,174.06 -87.38,174.39 -89.06,174.73 -90.76,175.09 -92.47,175.46 -94.21,175.85 -95.98,176.26 -97.75,176.67 -99.53,177.11 -101.38,177.57 -103.21,178.03 -105.07,178.52 -106.97,179.03 -108.88,179.54 -110.80,180.08 -112.76,180.64 -114.74,181.21 -116.76,181.80 -118.79,182.41 -120.85,183.04 -122.94,183.68 -125.05,184.35 -127.19,185.03 -129.37,185.73 -131.57,186.46 -133.80,187.19 -136.06,187.95 -138.35,188.74 -140.67,189.54 -143.02,190.36 -145.41,191.20 -147.83,192.06 -150.27,192.94 -152.75,193.85 -155.27,194.77 -157.83,195.72 -160.42,196.68 -163.04,197.67 -165.69,198.67 -168.37,199.71 -171.12,200.77 -173.89,201.84 -176.69,202.94 -179.54,204.05 -182.41,205.20 -185.34,206.37 -188.30,207.55 -190.04,208.26"/>
        <lane id="-E2_1" index="1" speed="13.89" length="2300.07" shape="-9.20,170.42 -9.73,170.34 -11.23,170.12 -12.73,169.90 -14.21,169.69 -15.67,169.50 -17.14,169.31 -18.60,169.12 -20.04,168.94 -21.49,168.77 -22.93,168.60 -24.36,168.44 -25.78,168.29 -27.20,168.15 -28.63,168.02 -30.04,167.89 -31.45,167.77 -32.86,167.67 -34.27,167.57 -35.67,167.48 -37.07,167.40 -38.48,167.33 -39.88,167.26 -41.29,167.21 -42.70,167.16 -44.10,167.13 -45.51,167.11 -46.92,167.09 -48.33,167.09 -49.75,167.10 -51.18,167.12 -52.61,167.15 -54.04,167.19 -55.49,167.24 -56.92,167.30 -58.38,167.38 -59.84,167.47 -61.31,167.57 -62.79,167.68 -64.27,167.79 -65.77,167.93 -67.28,168.08 -68.79,168.24 -70.32,168.42 -71.86,168.61 -73.41,168.81 -74.98,169.02 -76.56,169.25 -78.14,169.49 -79.75,169.75 -81.37,170.02 -83.01,170.31 -84.66,170.60 -86.33,170.92 -88.01,171.25 -89.71,171.60 -91.43,171.96 -93.16,172.33 -94.92,172.73 -96.70,173.14 -98.50,173.56 -100.30,174.00 -102.15,174.46 -104.01,174.93 -105.89,175.43 -107.80,175.94 -109.73,176.45 -111.67,177.00 -113.64,177.56 -115.64,178.14 -117.67,178.73 -119.72,179.34 -121.79,179.98 -123.89,180.63 -126.02,181.30 -128.17,181.98 -130.36,182.69 -132.57,183.42 -134.81,184.16 -137.09,184.92 -139.39,185.71 -141.72,186.51 -144.08,187.34 -146.48,188.19 -148.90,189.05 -151.36,189.93 -153.85,190.84 -156.38,191.77 -158.94,192.72 -161.54,193.69 -164.17,194.68 -166.83,195.68 -169.52,196.72 -172.27,197.78 -175.05,198.86 -177.86,199.96 -180.71,201.08 -183.60,202.23 -186.53,203.40 -189.49,204.58 -191.28,205.31"/>
    </edge>
    <edge id="-E3" from="Chachra" to="Dhormotola" priority="-1" length="2280.61">
        <lane id="-E3_0" index="0" speed="13.89" length="2280.61" shape="-162.84,-182.42 -188.54,17.74"/>
        <lane id="-E3_1" index="1" speed="13.89" length="2280.61" shape="-166.01,-182.83 -191.71,17.33"/>
    </edge>